ipss.plugin.3phase/testData/IEEE300/IEEE300Bus_modified_MVA_improved_lineMVAadded2_mod6_N1_Volt_addXfr_noHVDC_PW.raw
 0,    100.00, 30, 0, 0, 60.00       / October 18, 2016 17:11:34; Simulator Version 19; BuildDate 2015_11_24
 13/05/91 CYME INTERNATIONAL    100.0 1991 S
 IEEE 300-BUS TEST SYSTEM
    1,'1           ', 115.0000,1,     0.000,     0.000,   1,   1,1.0281000,   7.11320,   1
    2,'2           ', 115.0000,1,     0.000,     0.000,   1,   1,1.0350400,   8.86420,   1
    3,'3           ', 230.0000,1,     0.000,     0.000,   1,   1,0.9965100,   7.80550,   1
    4,'4           ', 345.0000,1,     0.000,     0.000,   1,   1,1.0301400,   5.79620,   1
    5,'5           ', 115.0000,1,     0.000,     0.000,   1,   1,1.0187700,   5.84630,   1
    6,'6           ', 115.0000,1,     0.000,     0.000,   1,   1,1.0308700,   8.12590,   1
    7,'7           ', 230.0000,1,     0.000,     0.000,   1,   1,0.9928800,   7.37150,   1
    8,'8           ', 115.0000,1,     0.000,     0.000,   1,   1,1.0148100,   3.46660,   1
    9,'9           ', 115.0000,1,     0.000,     0.000,   1,   1,1.0030900,   3.99700,   1
   10,'10          ', 230.0000,1,     0.000,     0.000,   1,   1,1.0200900,   2.49580,   1
   11,'11          ', 115.0000,1,     0.000,     0.000,   1,   1,1.0054100,   3.59050,   1
   12,'12          ', 230.0000,1,     0.000,     0.000,   1,   1,0.9969100,   6.37990,   1
   13,'13          ', 115.0000,1,     0.000,     0.000,   1,   1,0.9973300,   0.57740,   1
   14,'14          ', 115.0000,1,     0.000,     0.000,   1,   1,0.9984000,  -3.88190,   1
   15,'15          ', 115.0000,1,     0.000,     0.000,   1,   1,1.0337900,  -7.78430,   1
   16,'16          ', 345.0000,1,     0.000,     0.000,   1,   1,1.0310400,  -1.86090,   1
   17,'17          ', 115.0000,1,     0.000,     0.000,   1,   1,1.0644100, -12.31180,   1
   19,'19          ', 230.0000,1,     0.000,     0.000,   1,   1,0.9813600,   2.19170,   1
   20,'20          ', 115.0000,1,     0.000,     0.000,   1,   1,1.0005400,  -1.32720,   1
   21,'21          ', 230.0000,1,     0.000,     0.000,   1,   1,0.9747000,   2.75900,   1
   22,'22          ', 115.0000,1,     0.000,     0.000,   1,   1,0.9958800,  -0.84040,   1
   23,'23          ', 115.0000,1,     0.000,     0.000,   1,   1,1.0499700,   5.07220,   1
   24,'24          ', 230.0000,1,     0.000,     0.000,   1,   1,1.0054100,   7.15770,   1
   25,'25          ', 115.0000,1,     0.000,     0.000,   1,   1,1.0231900,   2.57300,   1
   26,'26          ', 115.0000,1,     0.000,     0.000,   1,   1,0.9983500,  -0.60150,   1
   27,'27          ', 115.0000,1,     0.000,     0.000,   1,   1,0.9747000,  -3.76470,   1
   33,'33          ', 115.0000,1,     0.000,     0.000,   1,   1,1.0255800, -11.57530,   1
   34,'34          ', 345.0000,1,     0.000,     0.000,   1,   1,1.0425000,  -7.48850,   1
   35,'35          ', 115.0000,1,     0.000,     0.000,   1,   1,0.9896700, -25.48600,   1
   36,'36          ', 230.0000,1,     0.000,     0.000,   1,   1,1.0124800, -22.41230,   1
   37,'37          ', 115.0000,1,     0.000,     0.000,   1,   1,1.0206300, -10.73800,   1
   38,'38          ', 115.0000,1,     0.000,     0.000,   1,   1,1.0214200, -12.11970,   1
   39,'39          ', 345.0000,1,     0.000,     0.000,   1,   1,1.0544699,  -5.36440,   1
   40,'40          ', 115.0000,1,     0.000,     0.000,   1,   1,1.0225300, -12.30860,   1
   41,'41          ', 115.0000,1,     0.000,     0.000,   1,   1,1.0301501, -10.00220,   1
   42,'42          ', 345.0000,1,     0.000,     0.000,   1,   1,1.0460100,  -6.99580,   1
   43,'43          ', 115.0000,1,     0.000,     0.000,   1,   1,1.0040100, -16.55340,   1
   44,'44          ', 115.0000,1,     0.000,     0.000,   1,   1,1.0142699, -17.37690,   1
   45,'45          ', 230.0000,1,     0.000,     0.000,   1,   1,1.0278800, -14.71430,   1
   46,'46          ', 345.0000,1,     0.000,     0.000,   1,   1,1.0375700, -11.50610,   1
   47,'47          ', 115.0000,1,     0.000,     0.000,   1,   1,0.9882400, -22.96830,   1
   48,'48          ', 115.0000,1,     0.000,     0.000,   1,   1,1.0030200, -15.58420,   1
   49,'49          ', 115.0000,1,     0.000,     0.000,   1,   1,1.0476700,  -2.48150,   1
   51,'51          ', 115.0000,1,     0.000,     0.000,   1,   1,1.0260000,  -7.81000,   1
   52,'52          ', 115.0000,1,     0.000,     0.000,   1,   1,0.9993300, -11.80150,   1
   53,'53          ', 115.0000,1,     0.000,     0.000,   1,   1,0.9995700, -17.42560,   1
   54,'54          ', 115.0000,1,     0.000,     0.000,   1,   1,1.0090500, -16.19580,   1
   55,'55          ', 115.0000,1,     0.000,     0.000,   1,   1,1.0172300, -12.36490,   1
   57,'57          ', 115.0000,1,     0.000,     0.000,   1,   1,1.0340900,  -8.92850,   1
   58,'58          ', 115.0000,1,     0.000,     0.000,   1,   1,0.9916800,  -7.26580,   1
   59,'59          ', 115.0000,1,     0.000,     0.000,   1,   1,0.9787700,  -6.66850,   1
   60,'60          ', 230.0000,1,     0.000,     0.000,   1,   1,1.0304900, -10.18850,   1
   61,'61          ', 115.0000,1,     0.000,     0.000,   1,   1,0.9907100,  -4.90050,   1
   62,'62          ', 230.0000,1,     0.000,     0.000,   1,   1,1.0175101,  -2.74130,   1
   63,'63          ', 115.0000,1,     0.000,     0.000,   1,   1,0.9582700, -19.09070,   1
   64,'64          ', 230.0000,1,     0.000,     0.000,   1,   1,0.9485700, -14.47800,   1
   69,'69          ', 115.0000,1,     0.000,     0.000,   1,   1,1.0064501, -26.12490,   1
   70,'70          ', 115.0000,1,     0.000,     0.000,   1,   1,1.0218800, -34.87180,   1
   71,'71          ', 115.0000,1,     0.000,   150.000,   1,   1,1.0465200, -30.25810,   1
   72,'72          ', 115.0000,1,     0.000,     0.000,   1,   1,0.9947500, -27.32940,   1
   73,'73          ', 115.0000,1,     0.000,     0.000,   1,   1,0.9972200, -25.59320,   1
   74,'74          ', 230.0000,1,     0.000,     0.000,   1,   1,1.0099200, -21.89570,   1
   76,'76          ', 115.0000,1,     0.000,     0.000,   1,   1,0.9760300, -26.24240,   1
   77,'77          ', 115.0000,1,     0.000,     0.000,   1,   1,0.9967200, -24.71510,   1
   78,'78          ', 115.0000,1,     0.000,     0.000,   1,   1,1.0021100, -23.84130,   1
   79,'79          ', 115.0000,1,     0.000,     0.000,   1,   1,0.9986100, -24.81380,   1
   80,'80          ', 115.0000,1,     0.000,     0.000,   1,   1,0.9974900, -24.72380,   1
   81,'81          ', 345.0000,1,     0.000,     0.000,   1,   1,1.0396399, -18.69300,   1
   84,'84          ', 115.0000,1,     0.000,     0.000,   1,   1,1.0248899, -17.03730,   1
   85,'85          ', 230.0000,1,     0.000,     0.000,   1,   1,0.9870300, -16.93860,   1
   86,'86          ', 230.0000,1,     0.000,     0.000,   1,   1,0.9905600, -13.39510,   1
   87,'87          ', 230.0000,1,     0.000,     0.000,   1,   1,0.9913700,  -6.84060,   1
   88,'88          ', 230.0000,1,     0.000,     0.000,   1,   1,1.0248500, -20.78670,   1
   89,'89          ', 115.0000,1,     0.000,     0.000,   1,   1,1.0316300, -10.43050,   1
   90,'90          ', 115.0000,1,     0.000,     0.000,   1,   1,1.0274100, -10.63020,   1
   91,'91          ', 115.0000,1,     0.000,     0.000,   1,   1,1.0519500,  -8.64950,   1
   92,'92          ', 115.0000,1,     0.000,     0.000,   1,   1,1.0519700,  -5.56280,   1
   94,'94          ', 115.0000,1,     0.000,     0.000,   1,   1,0.9926500,  -8.52940,   1
   97,'97          ', 115.0000,1,     0.000,     0.000,   1,   1,1.0182000, -12.48860,   1
   98,'98          ', 115.0000,1,     0.000,     0.000,   1,   1,1.0000100, -13.84680,   1
   99,'99          ', 115.0000,1,     0.000,     0.000,   1,   1,0.9894800, -19.56620,   1
  100,'100         ', 115.0000,1,     0.000,     0.000,   1,   1,1.0059700, -13.68830,   1
  102,'102         ', 115.0000,1,     0.000,     0.000,   1,   1,1.0006800, -14.46740,   1
  103,'103         ', 115.0000,1,     0.000,     0.000,   1,   1,1.0289201, -11.40030,   1
  104,'104         ', 115.0000,1,     0.000,     0.000,   1,   1,0.9957100, -16.58040,   1
  105,'105         ', 115.0000,1,     0.000,     0.000,   1,   1,1.0226800, -12.30710,   1
  107,'107         ', 115.0000,1,     0.000,     0.000,   1,   1,1.0102100, -15.43330,   1
  108,'108         ', 115.0000,1,     0.000,     0.000,   1,   1,0.9899800, -19.55010,   1
  109,'109         ', 115.0000,1,     0.000,     0.000,   1,   1,0.9801300, -25.47110,   1
  110,'110         ', 115.0000,1,     0.000,     0.000,   1,   1,0.9762200, -24.07090,   1
  112,'112         ', 115.0000,1,     0.000,     0.000,   1,   1,0.9813000, -28.06520,   1
  113,'113         ', 115.0000,1,     0.000,     0.000,   1,   1,0.9790700, -25.03810,   1
  114,'114         ', 115.0000,1,     0.000,     0.000,   1,   1,0.9839900, -27.97010,   1
  115,'115         ', 115.0000,1,     0.000,     0.000,   2,   2,0.9533000,  10.84050,   1
  116,'116         ', 115.0000,1,     0.000,     0.000,   2,   2,1.0398999,  17.47360,   1
  117,'117         ', 115.0000,1,     0.000,   500.000,   2,   2,0.9715900,  22.26780,   1
  118,'118         ', 115.0000,1,     0.000,     0.000,   2,   2,0.9633900,  23.27180,   1
  119,'119         ', 115.0000,1,     0.000,     0.000,   2,   2,1.0426600,  37.49990,   1
  120,'120         ', 115.0000,1,     0.000,   150.000,   2,   2,1.0474200,  34.86120,   1
  121,'121         ', 115.0000,1,     0.000,     0.000,   2,   2,0.9429200,  14.13440,   1
  122,'122         ', 115.0000,1,     0.000,     0.000,   2,   2,0.9556200,   8.43950,   1
  123,'123         ', 115.0000,1,     0.000,     0.000,   2,   2,0.9847600,   4.13770,   1
  124,'124         ', 115.0000,1,     0.000,     0.000,   2,   2,1.0231800,  14.41440,   1
  125,'125         ', 115.0000,1,     0.000,     0.000,   2,   2,1.0075800,  -5.27190,   1
  126,'126         ', 115.0000,1,     0.000,   200.000,   2,   2,1.0056700,  -1.17210,   1
  127,'127         ', 230.0000,1,     0.000,     0.000,   2,   2,1.0056100,  -6.16600,   1
  128,'128         ', 230.0000,1,     0.000,     0.000,   2,   2,1.0049300,  -4.22720,   1
  129,'129         ', 230.0000,1,     0.000,     0.000,   2,   2,1.0049500,  -3.42770,   1
  130,'130         ', 230.0000,1,     0.000,     0.000,   2,   2,1.0187200,   6.98650,   1
  131,'131         ', 230.0000,1,     0.000,     0.000,   2,   2,0.9857800,   7.30630,   1
  132,'132         ', 230.0000,1,     0.000,     0.000,   2,   2,1.0052201,   5.24990,   1
  133,'133         ', 230.0000,1,     0.000,     0.000,   2,   2,1.0033100,  -6.39380,   1
  134,'134         ', 230.0000,1,     0.000,     0.000,   2,   2,1.0285400,  -5.34040,   1
  135,'135         ', 230.0000,1,     0.000,     0.000,   2,   2,1.0286400,  -5.48060,   1
  136,'136         ', 230.0000,1,     0.000,     0.000,   2,   2,1.0552800,  -0.25630,   1
  137,'137         ', 230.0000,1,     0.000,     0.000,   2,   2,1.0452300,  -6.38160,   1
  138,'138         ', 230.0000,1,     0.000,     0.000,   2,   2,1.0530200, -15.79960,   1
  139,'139         ', 115.0000,1,     0.000,     0.000,   2,   2,1.0110101,  -8.28220,   1
  140,'140         ', 230.0000,1,     0.000,     0.000,   2,   2,1.0417399,  -8.16820,   1
  141,'141         ', 230.0000,1,     0.000,     0.000,   2,   2,1.0509300,  -4.45860,   1
  142,'142         ', 230.0000,1,     0.000,     0.000,   2,   2,1.0154700,  -6.62150,   1
  143,'143         ', 230.0000,1,     0.000,     0.000,   2,   2,1.0434999,   0.58650,   1
  144,'144         ', 230.0000,1,     0.000,     0.000,   2,   2,1.0173100,  -2.47940,   1
  145,'145         ', 230.0000,1,     0.000,     0.000,   2,   2,1.0118300,  -3.89480,   1
  146,'146         ', 230.0000,1,     0.000,     0.000,   2,   2,1.0527700,   0.24960,   1
  147,'147         ', 230.0000,1,     0.000,     0.000,   2,   2,1.0528500,   4.20910,   1
  148,'148         ', 115.0000,1,     0.000,   120.000,   2,   2,1.0981500,  -3.34350,   1
  149,'149         ', 230.0000,1,     0.000,     0.000,   2,   2,1.0734500,   1.67940,   1
  150,'150         ', 230.0000,1,     0.000,     0.000,   2,   2,0.9865600,   7.58870,   1
  151,'151         ', 230.0000,1,     0.000,     0.000,   2,   2,1.0030000,   5.68570,   1
  152,'152         ', 230.0000,1,     0.000,     0.000,   2,   2,1.0609900,   6.91860,   1
  153,'153         ', 230.0000,1,     0.000,     0.000,   2,   2,1.0470901,   7.11150,   1
  154,'154         ', 115.0000,1,     0.000,    84.500,   2,   2,1.0710800,  -6.93440,   1
  155,'155         ', 230.0000,1,     0.000,     0.000,   2,   2,1.0187800,   2.85610,   1
  156,'156         ', 115.0000,1,     0.000,     0.000,   2,   2,0.9648500,   1.31790,   1
  157,'157         ', 230.0000,1,     0.000,     0.000,   2,   2,0.9599400,   9.97350,   1
  158,'158         ', 230.0000,1,     0.000,     0.000,   2,   2,0.9797900,   9.56360,   1
  159,'159         ', 230.0000,1,     0.000,     0.000,   2,   2,0.9558700,  13.79120,   1
  160,'160         ', 230.0000,1,     0.000,     0.000,   2,   2,0.9938700,  12.19060,   1
  161,'161         ', 230.0000,1,     0.000,     0.000,   2,   2,1.0386900,   5.31820,   1
  162,'162         ', 230.0000,1,     0.000,     0.000,   2,   2,0.9915100,  14.40550,   1
  163,'163         ', 230.0000,1,     0.000,     0.000,   2,   2,1.0382000,  -1.67890,   1
  164,'164         ', 230.0000,1,     0.000,  -212.000,   2,   2,0.9835400,   5.56030,   1
  165,'165         ', 230.0000,1,     0.000,     0.000,   2,   2,0.9999700,  22.21760,   1
  166,'166         ', 230.0000,1,     0.000,  -103.000,   2,   2,0.9970500,  26.13110,   1
  167,'167         ', 230.0000,1,     0.000,     0.000,   2,   2,0.9722900,  -5.91220,   1
  168,'168         ', 230.0000,1,     0.000,     0.000,   2,   2,1.0049700,  -4.25200,   1
  169,'169         ', 230.0000,1,     0.000,     0.000,   2,   2,0.9892800,  -5.78340,   1
  170,'170         ', 115.0000,1,     0.000,     0.000,   2,   2,0.9228500,   1.94680,   1
  171,'171         ', 115.0000,1,     0.000,     0.000,   2,   2,0.9827500, -10.86180,   1
  172,'172         ', 115.0000,1,     0.000,     0.000,   2,   2,1.0247000, -10.72390,   1
  173,'173         ', 115.0000,1,     0.000,    53.000,   2,   2,0.9844000, -16.86230,   1
  174,'174         ', 115.0000,1,     0.000,     0.000,   2,   2,1.0623300,  -7.15210,   1
  175,'175         ', 115.0000,1,     0.000,     0.000,   2,   2,0.9763600, -11.01140,   1
  176,'176         ', 115.0000,1,     0.000,     0.000,   2,   2,1.0521600,   1.02500,   1
  177,'177         ', 115.0000,1,     0.000,     0.000,   2,   2,1.0076801,  -2.90950,   1
  178,'178         ', 115.0000,1,     0.000,     0.000,   2,   2,0.9500300, -10.05620,   1
  179,'179         ', 115.0000,1,     0.000,    45.000,   2,   2,0.9864000, -12.80040,   1
  180,'180         ', 115.0000,1,     0.000,     0.000,   2,   2,0.9855300,  -6.72830,   1
  181,'181         ', 230.0000,1,     0.000,     0.000,   2,   2,1.0484400,  -6.89370,   1
  182,'182         ', 230.0000,1,     0.000,     0.000,   2,   2,1.0435801,  -8.91620,   1
  183,'183         ', 115.0000,1,     0.000,     0.000,   2,   2,0.9921700,   3.50110,   1
  184,'184         ', 230.0000,1,     0.000,     0.000,   2,   2,1.0411201,  -4.13050,   1
  185,'185         ', 230.0000,1,     0.000,     0.000,   2,   2,1.0521801,  -1.60790,   1
  186,'186         ', 230.0000,1,     0.000,     0.000,   2,   2,1.0647100,  -3.12880,   1
  187,'187         ', 230.0000,1,     0.000,     0.000,   2,   2,1.0646400,  -4.14530,   1
  188,'188         ', 230.0000,1,     0.000,     0.000,   2,   2,1.0504800,  -6.23560,   1
  189,'189         ',  66.0000,1,     0.000,     0.000,   3,   3,1.0069000, -25.56530,   1
  190,'190         ', 345.0000,1,     0.000,  -150.000,   3,   3,1.0551800, -20.37360,   1
  191,'191         ', 230.0000,1,     0.000,     0.000,   3,   3,1.0427800,  12.39180,   1
  192,'192         ', 230.0000,1,     0.000,     0.000,   3,   3,0.9391500, -11.01110,   1
  193,'192         ',  66.0000,1,     0.000,     0.000,   3,   3,1.0099500, -25.67170,   1
  194,'194         ', 345.0000,1,     0.000,     0.000,   3,   3,1.0519201, -18.99720,   1
  195,'195         ', 345.0000,1,     0.000,     0.000,   3,   3,1.0393200, -20.56150,   1
  196,'196         ', 115.0000,1,     0.000,     0.000,   3,   3,0.9795000, -25.23610,   1
  197,'197         ', 115.0000,1,     0.000,     0.000,   3,   3,0.9965700, -23.56800,   1
  198,'198         ', 115.0000,1,     0.000,     0.000,   3,   3,1.0149300, -20.54020,   1
  199,'199         ', 115.0000,1,     0.000,     0.000,   3,   3,0.9577500, -25.90950,   1
  200,'200         ', 115.0000,1,     0.000,     0.000,   3,   3,0.9595400, -25.77170,   1
  201,'201         ',  66.0000,1,     0.000,    50.000,   1,   1,1.0486600, -27.98940,   1
  202,'202         ',  66.0000,1,     0.000,     0.000,   3,   3,0.9867500, -23.81680,   1
  203,'203         ', 115.0000,1,     0.000,     0.000,   3,   3,1.0060101, -22.21720,   1
  204,'204         ',  66.0000,1,     0.000,     0.000,   3,   3,1.0085300, -25.39410,   1
  205,'205         ',  66.0000,1,     0.000,     0.000,   3,   3,1.0111099, -25.68770,   1
  206,'206         ',  66.0000,1,     0.000,     0.000,   3,   3,1.0143501, -26.85940,   1
  207,'207         ',  66.0000,1,     0.000,     0.000,   1,   1,1.0264699, -26.82200,   1
  208,'208         ',  66.0000,1,     0.000,     0.000,   3,   3,1.0069500, -25.90640,   1
  209,'209         ',  66.0000,1,     0.000,     0.000,   3,   3,1.0066800, -25.38650,   1
  210,'210         ', 115.0000,1,     0.000,     0.000,   3,   3,0.9839200, -24.11910,   1
  211,'211         ', 115.0000,1,     0.000,     0.000,   3,   3,1.0076700, -23.05720,   1
  212,'212         ', 138.0000,1,     0.000,     0.000,   3,   3,1.0181299, -22.25480,   1
  213,'213         ',  16.5000,1,     0.000,     0.000,   3,   3,1.0099500, -11.42720,   1
  214,'214         ', 138.0000,1,     0.000,     0.000,   3,   3,0.9921800, -17.28570,   1
  215,'215         ', 138.0000,1,     0.000,     0.000,   3,   3,0.9877300, -19.98330,   1
  216,'216         ', 138.0000,1,     0.000,     0.000,   3,   3,0.9760500, -22.27730,   1
  217,'217         ', 138.0000,1,     0.000,     0.000,   3,   3,1.0219899, -21.95420,   1
  218,'218         ', 138.0000,1,     0.000,     0.000,   3,   3,1.0078501, -22.38400,   1
  219,'219         ', 345.0000,1,     0.000,     0.000,   3,   3,1.0559900, -20.90800,   1
  220,'220         ', 138.0000,1,     0.000,     0.000,   3,   3,1.0079600, -21.48040,   1
  221,'221         ', 138.0000,1,     0.000,     0.000,   3,   3,0.9998400, -22.24130,   1
...
0 / END OF BUS DATA, BEGIN LOAD DATA
    1,'1 ',1,   1,   1,    90.000,    49.000,     0.000,     0.000,     0.000,     0.000,   1
    2,'1 ',1,   1,   1,    56.000,    15.000,     0.000,     0.000,     0.000,     0.000,   1
    3,'1 ',1,   1,   1,    20.000,     0.000,     0.000,     0.000,     0.000,     0.000,   1
    5,'1 ',1,   1,   1,   353.000,   130.000,     0.000,     0.000,     0.000,     0.000,   1
    6,'1 ',1,   1,   1,   120.000,    41.000,     0.000,     0.000,     0.000,     0.000,   1
    8,'1 ',1,   1,   1,    58.000,    14.000,     0.000,     0.000,     0.000,     0.000,   1
    9,'1 ',1,   1,   1,    96.000,    43.000,     0.000,     0.000,     0.000,     0.000,   1
   10,'1 ',1,   1,   1,   148.000,    33.000,     0.000,     0.000,     0.000,     0.000,   1
   11,'1 ',1,   1,   1,    83.000,    21.000,     0.000,     0.000,     0.000,     0.000,   1
   13,'1 ',1,   1,   1,    58.000,    10.000,     0.000,     0.000,     0.000,     0.000,   1
   14,'1 ',1,   1,   1,   160.000,    60.000,     0.000,     0.000,     0.000,     0.000,   1
   15,'1 ',1,   1,   1,   126.700,    23.000,     0.000,     0.000,     0.000,     0.000,   1
   17,'1 ',1,   1,   1,   561.000,   220.000,     0.000,     0.000,     0.000,     0.000,   1
   20,'1 ',1,   1,   1,   595.000,   120.000,     0.000,     0.000,     0.000,     0.000,   1
   21,'1 ',1,   1,   1,    77.000,     1.000,     0.000,     0.000,     0.000,     0.000,   1
   22,'1 ',1,   1,   1,    81.000,    23.000,     0.000,     0.000,     0.000,     0.000,   1
   23,'1 ',1,   1,   1,    21.000,     7.000,     0.000,     0.000,     0.000,     0.000,   1
   25,'1 ',1,   1,   1,    45.000,    12.000,     0.000,     0.000,     0.000,     0.000,   1
   26,'1 ',1,   1,   1,    28.000,     9.000,     0.000,     0.000,     0.000,     0.000,   1
   27,'1 ',1,   1,   1,    69.000,    13.000,     0.000,     0.000,     0.000,     0.000,   1
   33,'1 ',1,   1,   1,    55.000,     6.000,     0.000,     0.000,     0.000,     0.000,   1
   37,'1 ',1,   1,   1,    85.000,    32.000,     0.000,     0.000,     0.000,     0.000,   1
   38,'1 ',1,   1,   1,   155.000,    18.000,     0.000,     0.000,     0.000,     0.000,   1
   40,'1 ',1,   1,   1,    46.000,   -21.000,     0.000,     0.000,     0.000,     0.000,   1
   41,'1 ',1,   1,   1,    86.000,     0.000,     0.000,     0.000,     0.000,     0.000,   1
   43,'1 ',1,   1,   1,    39.000,     9.000,     0.000,     0.000,     0.000,     0.000,   1
   44,'1 ',1,   1,   1,   195.000,    29.000,     0.000,     0.000,     0.000,     0.000,   1
   47,'1 ',1,   1,   1,    58.000,    11.800,     0.000,     0.000,     0.000,     0.000,   1
   48,'1 ',1,   1,   1,    41.000,    19.000,     0.000,     0.000,     0.000,     0.000,   1
   49,'1 ',1,   1,   1,    92.000,    26.000,     0.000,     0.000,     0.000,     0.000,   1
   51,'1 ',1,   1,   1,    -5.000,     5.000,     0.000,     0.000,     0.000,     0.000,   1
   52,'1 ',1,   1,   1,    61.000,    28.000,     0.000,     0.000,     0.000,     0.000,   1
   53,'1 ',1,   1,   1,    69.000,     3.000,     0.000,     0.000,     0.000,     0.000,   1
   54,'1 ',1,   1,   1,    10.000,     1.000,     0.000,     0.000,     0.000,     0.000,   1
   55,'1 ',1,   1,   1,    22.000,    10.000,     0.000,     0.000,     0.000,     0.000,   1
   57,'1 ',1,   1,   1,    98.000,    20.000,     0.000,     0.000,     0.000,     0.000,   1
   58,'1 ',1,   1,   1,    14.000,     1.000,     0.000,     0.000,     0.000,     0.000,   1
   59,'1 ',1,   1,   1,   218.000,   106.000,     0.000,     0.000,     0.000,     0.000,   1
   61,'1 ',1,   1,   1,   227.000,   110.000,     0.000,     0.000,     0.000,     0.000,   1
   63,'1 ',1,   1,   1,    70.000,    30.000,     0.000,     0.000,     0.000,     0.000,   1
   70,'1 ',1,   1,   1,    56.000,    20.000,     0.000,     0.000,     0.000,     0.000,   1
   71,'1 ',1,   1,   1,   116.000,    38.000,     0.000,     0.000,     0.000,     0.000,   1
   72,'1 ',1,   1,   1,    57.000,    19.000,     0.000,     0.000,     0.000,     0.000,   1
   73,'1 ',1,   1,   1,   224.000,    71.000,     0.000,     0.000,     0.000,     0.000,   1
   76,'1 ',1,   1,   1,   208.000,   107.000,     0.000,     0.000,     0.000,     0.000,   1
   77,'1 ',1,   1,   1,    74.000,    28.000,     0.000,     0.000,     0.000,     0.000,   1
   79,'1 ',1,   1,   1,    48.000,    14.000,     0.000,     0.000,     0.000,     0.000,   1
   80,'1 ',1,   1,   1,    28.000,     7.000,     0.000,     0.000,     0.000,     0.000,   1
   84,'1 ',1,   1,   1,    37.000,    13.000,     0.000,     0.000,     0.000,     0.000,   1
   89,'1 ',1,   1,   1,    44.200,     0.000,     0.000,     0.000,     0.000,     0.000,   1
   90,'1 ',1,   1,   1,    66.000,     0.000,     0.000,     0.000,     0.000,     0.000,   1
   91,'1 ',1,   1,   1,    17.400,     0.000,     0.000,     0.000,     0.000,     0.000,   1
   92,'1 ',1,   1,   1,    15.800,     0.000,     0.000,     0.000,     0.000,     0.000,   1
   94,'1 ',1,   1,   1,    60.300,     0.000,     0.000,     0.000,     0.000,     0.000,   1
   97,'1 ',1,   1,   1,    39.900,     0.000,     0.000,     0.000,     0.000,     0.000,   1
   98,'1 ',1,   1,   1,    66.700,     0.000,     0.000,     0.000,     0.000,     0.000,   1
   99,'1 ',1,   1,   1,    83.500,     0.000,     0.000,     0.000,     0.000,     0.000,   1
  102,'1 ',1,   1,   1,    77.800,     0.000,     0.000,     0.000,     0.000,     0.000,   1
  103,'1 ',1,   1,   1,    32.000,     0.000,     0.000,     0.000,     0.000,     0.000,   1
  104,'1 ',1,   1,   1,     8.600,     0.000,     0.000,     0.000,     0.000,     0.000,   1
  105,'1 ',1,   1,   1,    49.600,     0.000,     0.000,     0.000,     0.000,     0.000,   1
  107,'1 ',1,   1,   1,     4.600,     0.000,     0.000,     0.000,     0.000,     0.000,   1
  108,'1 ',1,   1,   1,   112.100,     0.000,     0.000,     0.000,     0.000,     0.000,   1
  109,'1 ',1,   1,   1,    30.700,     0.000,     0.000,     0.000,     0.000,     0.000,   1
  110,'1 ',1,   1,   1,    63.000,     0.000,     0.000,     0.000,     0.000,     0.000,   1
  112,'1 ',1,   1,   1,    19.600,     0.000,     0.000,     0.000,     0.000,     0.000,   1
  113,'1 ',1,   1,   1,    26.200,     0.000,     0.000,     0.000,     0.000,     0.000,   1
  114,'1 ',1,   1,   1,    18.200,     0.000,     0.000,     0.000,     0.000,     0.000,   1
  118,'1 ',1,   2,   2,    14.100,   650.000,     0.000,     0.000,     0.000,     0.000,   1
  119,'1 ',1,   2,   2,   100.300,    34.400,     0.000,     0.000,     0.000,     0.000,   1
  120,'1 ',1,   2,   2,  -100.000,    40.200,     0.000,     0.000,     0.000,     0.000,   1
  121,'1 ',1,   2,   2,   535.000,    55.000,     0.000,     0.000,     0.000,     0.000,   1
  122,'1 ',1,   2,   2,   229.100,    11.800,     0.000,     0.000,     0.000,     0.000,   1
  123,'1 ',1,   2,   2,    78.000,     1.400,     0.000,     0.000,     0.000,     0.000,   1
  124,'1 ',1,   2,   2,   276.400,    59.300,     0.000,     0.000,     0.000,     0.000,   1
  125,'1 ',1,   2,   2,   514.800,    82.700,     0.000,     0.000,     0.000,     0.000,   1
  126,'1 ',1,   2,   2,    57.900,     5.100,     0.000,     0.000,     0.000,     0.000,   1
  127,'1 ',1,   2,   2,   380.800,    37.000,     0.000,     0.000,     0.000,     0.000,   1
  135,'1 ',1,   2,   2,   169.200,    41.600,     0.000,     0.000,     0.000,     0.000,   1
  136,'1 ',1,   2,   2,    55.200,    18.200,     0.000,     0.000,     0.000,     0.000,   1
  137,'1 ',1,   2,   2,   273.600,    99.800,     0.000,     0.000,     0.000,     0.000,   1
  138,'1 ',1,   2,   2,   826.700,   135.200,     0.000,     0.000,     0.000,     0.000,   1
  139,'1 ',1,   2,   2,   595.000,    83.300,     0.000,     0.000,     0.000,     0.000,   1
  140,'1 ',1,   2,   2,   387.700,   114.700,     0.000,     0.000,     0.000,     0.000,   1
  141,'1 ',1,   2,   2,   145.000,    58.000,     0.000,     0.000,     0.000,     0.000,   1
  142,'1 ',1,   2,   2,    56.500,    24.500,     0.000,     0.000,     0.000,     0.000,   1
  143,'1 ',1,   2,   2,    89.500,    35.500,     0.000,     0.000,     0.000,     0.000,   1
  145,'1 ',1,   2,   2,    24.000,    14.000,     0.000,     0.000,     0.000,     0.000,   1
  148,'1 ',1,   2,   2,    63.000,    25.000,     0.000,     0.000,     0.000,     0.000,   1
  152,'1 ',1,   2,   2,    17.000,     9.000,     0.000,     0.000,     0.000,     0.000,   1
  154,'1 ',1,   2,   2,    70.000,     5.000,     0.000,     0.000,     0.000,     0.000,   1
  155,'1 ',1,   2,   2,   200.000,    50.000,     0.000,     0.000,     0.000,     0.000,   1
  156,'1 ',1,   2,   2,    75.000,    50.000,     0.000,     0.000,     0.000,     0.000,   1
  157,'1 ',1,   2,   2,   123.500,   -24.300,     0.000,     0.000,     0.000,     0.000,   1
  159,'1 ',1,   2,   2,    33.000,    16.500,     0.000,     0.000,     0.000,     0.000,   1
  161,'1 ',1,   2,   2,    35.000,    15.000,     0.000,     0.000,     0.000,     0.000,   1
  162,'1 ',1,   2,   2,    85.000,    24.000,     0.000,     0.000,     0.000,     0.000,   1
  163,'1 ',1,   2,   2,     0.000,     0.400,     0.000,     0.000,     0.000,     0.000,   1
  167,'1 ',1,   2,   2,   299.900,    95.700,     0.000,     0.000,     0.000,     0.000,   1
  170,'1 ',1,   2,   2,   481.800,   100.000,     0.000,     0.000,     0.000,     0.000,   1
  171,'1 ',1,   2,   2,   763.600,   291.100,     0.000,     0.000,     0.000,     0.000,   1
  172,'1 ',1,   2,   2,    26.500,     0.000,     0.000,     0.000,     0.000,     0.000,   1
  173,'1 ',1,   2,   2,   163.500,    43.000,     0.000,     0.000,     0.000,     0.000,   1
  175,'1 ',1,   2,   2,   176.000,    83.000,     0.000,     0.000,     0.000,     0.000,   1
  176,'1 ',1,   2,   2,     5.000,     4.000,     0.000,     0.000,     0.000,     0.000,   1
  177,'1 ',1,   2,   2,    28.000,    12.000,     0.000,     0.000,     0.000,     0.000,   1
  178,'1 ',1,   2,   2,   427.400,   173.600,     0.000,     0.000,     0.000,     0.000,   1
  179,'1 ',1,   2,   2,    74.000,    29.000,     0.000,     0.000,     0.000,     0.000,   1
  180,'1 ',1,   2,   2,    69.500,    49.300,     0.000,     0.000,     0.000,     0.000,   1
  181,'1 ',1,   2,   2,    73.400,     0.000,     0.000,     0.000,     0.000,     0.000,   1
  182,'1 ',1,   2,   2,   240.700,    89.000,     0.000,     0.000,     0.000,     0.000,   1
  183,'1 ',1,   2,   2,    40.000,     4.000,     0.000,     0.000,     0.000,     0.000,   1
  184,'1 ',1,   2,   2,   136.800,    16.600,     0.000,     0.000,     0.000,     0.000,   1
  186,'1 ',1,   2,   2,    59.800,    24.300,     0.000,     0.000,     0.000,     0.000,   1
  187,'1 ',1,   2,   2,    59.800,    24.300,     0.000,     0.000,     0.000,     0.000,   1
  188,'1 ',1,   2,   2,   182.600,    43.600,     0.000,     0.000,     0.000,     0.000,   1
  189,'1 ',1,   3,   3,     7.000,     2.000,     0.000,     0.000,     0.000,     0.000,   1
  191,'1 ',1,   3,   3,   489.000,    53.000,     0.000,     0.000,     0.000,     0.000,   1
  192,'1 ',1,   3,   3,   800.000,    72.000,     0.000,     0.000,     0.000,     0.000,   1
  196,'1 ',1,   3,   3,    10.000,     3.000,     0.000,     0.000,     0.000,     0.000,   1
  197,'1 ',1,   3,   3,    43.000,    14.000,     0.000,     0.000,     0.000,     0.000,   1
  198,'1 ',1,   3,   3,    64.000,    21.000,     0.000,     0.000,     0.000,     0.000,   1
  199,'1 ',1,   3,   3,    35.000,    12.000,     0.000,     0.000,     0.000,     0.000,   1
  200,'1 ',1,   3,   3,    27.000,    12.000,     0.000,     0.000,     0.000,     0.000,   1
  201,'1 ',1,   1,   1,    41.000,    14.000,     0.000,     0.000,     0.000,     0.000,   1
  202,'1 ',1,   3,   3,    38.000,    13.000,     0.000,     0.000,     0.000,     0.000,   1
  203,'1 ',1,   3,   3,    42.000,    14.000,     0.000,     0.000,     0.000,     0.000,   1
  204,'1 ',1,   3,   3,    72.000,    24.000,     0.000,     0.000,     0.000,     0.000,   1
  205,'1 ',1,   3,   3,     0.000,    -5.000,     0.000,     0.000,     0.000,     0.000,   1
  206,'1 ',1,   3,   3,    12.000,     2.000,     0.000,     0.000,     0.000,     0.000,   1
  207,'1 ',1,   1,   1,   -21.000,   -14.200,     0.000,     0.000,     0.000,     0.000,   1
  208,'1 ',1,   3,   3,     7.000,     2.000,     0.000,     0.000,     0.000,     0.000,   1
  209,'1 ',1,   3,   3,    38.000,    13.000,     0.000,     0.000,     0.000,     0.000,   1
  211,'1 ',1,   3,   3,    96.000,     7.000,     0.000,     0.000,     0.000,     0.000,   1
  214,'1 ',1,   3,   3,    22.000,    16.000,     0.000,     0.000,     0.000,     0.000,   1
  215,'1 ',1,   3,   3,    47.000,    26.000,     0.000,     0.000,     0.000,     0.000,   1
  216,'1 ',1,   3,   3,   176.000,   105.000,     0.000,     0.000,     0.000,     0.000,   1
  217,'1 ',1,   3,   3,   100.000,    75.000,     0.000,     0.000,     0.000,     0.000,   1
  218,'1 ',1,   3,   3,   131.000,    96.000,     0.000,     0.000,     0.000,     0.000,   1
  220,'1 ',1,   3,   3,   285.000,   100.000,     0.000,     0.000,     0.000,     0.000,   1
  221,'1 ',1,   3,   3,   171.000,    70.000,     0.000,     0.000,     0.000,     0.000,   1
  222,'1 ',1,   3,   3,   328.000,   188.000,     0.000,     0.000,     0.000,     0.000,   1
  223,'1 ',1,   3,   3,   428.000,   232.000,     0.000,     0.000,     0.000,     0.000,   1
  224,'1 ',1,   3,   3,   173.000,    99.000,     0.000,     0.000,     0.000,     0.000,   1
  225,'1 ',1,   3,   3,   410.000,    40.000,     0.000,     0.000,     0.000,     0.000,   1
  227,'1 ',1,   3,   3,   538.000,   369.000,     0.000,     0.000,     0.000,     0.000,   1
  228,'1 ',1,   3,   3,   223.000,   148.000,     0.000,     0.000,     0.000,     0.000,   1
  229,'1 ',1,   3,   3,    96.000,    46.000,     0.000,     0.000,     0.000,     0.000,   1
  231,'1 ',1,   3,   3,   159.000,   107.000,     0.000,     0.000,     0.000,     0.000,   1
  232,'1 ',1,   3,   3,   448.000,   143.000,     0.000,     0.000,     0.000,     0.000,   1
  233,'1 ',1,   3,   3,   404.000,   212.000,     0.000,     0.000,     0.000,     0.000,   1
  234,'1 ',1,   3,   3,   572.000,   244.000,     0.000,     0.000,     0.000,     0.000,   1
  235,'1 ',1,   3,   3,   269.000,   157.000,     0.000,     0.000,     0.000,     0.000,   1
  238,'1 ',1,   3,   3,   255.000,   149.000,     0.000,     0.000,     0.000,     0.000,   1
  243,'1 ',1,   3,   3,     8.000,     3.000,     0.000,     0.000,     0.000,     0.000,   1
  245,'1 ',1,   3,   3,    61.000,    30.000,     0.000,     0.000,     0.000,     0.000,   1
  246,'1 ',1,   3,   3,    77.000,    33.000,     0.000,     0.000,     0.000,     0.000,   1
  247,'1 ',1,   3,   3,    61.000,    30.000,     0.000,     0.000,     0.000,     0.000,   1
  248,'1 ',1,   3,   3,    29.000,    14.000,     0.000,     0.000,     0.000,     0.000,   1
  249,'1 ',1,   3,   3,    29.000,    14.000,     0.000,     0.000,     0.000,     0.000,   1
  250,'1 ',1,   3,   3,   -23.000,   -17.000,     0.000,     0.000,     0.000,     0.000,   1
  281,'1 ',1,   3,   3,   -33.100,   -29.400,     0.000,     0.000,     0.000,     0.000,   1
  319,'1 ',1,   1,   1,   115.800,   -24.000,     0.000,     0.000,     0.000,     0.000,   1
  320,'1 ',1,   1,   1,     2.400,   -12.600,     0.000,     0.000,     0.000,     0.000,   1
  322,'1 ',1,   1,   1,     2.400,    -3.900,     0.000,     0.000,     0.000,     0.000,   1
  323,'1 ',1,   1,   1,   -14.900,    26.500,     0.000,     0.000,     0.000,     0.000,   1
  324,'1 ',1,   1,   1,    24.700,    -1.200,     0.000,     0.000,     0.000,     0.000,   1
  526,'1 ',1,   1,   1,   145.300,   -34.900,     0.000,     0.000,     0.000,     0.000,   1
  528,'1 ',1,   1,   1,    28.100,   -20.500,     0.000,     0.000,     0.000,     0.000,   1
  531,'1 ',1,   1,   1,    14.000,     2.500,     0.000,     0.000,     0.000,     0.000,   1
  552,'1 ',1,   1,   1,   -11.100,    -1.400,     0.000,     0.000,     0.000,     0.000,   1
  562,'1 ',1,   1,   1,    50.500,    17.400,     0.000,     0.000,     0.000,     0.000,   1
  609,'1 ',1,   1,   1,    29.600,     0.600,     0.000,     0.000,     0.000,     0.000,   1
  664,'1 ',1,   3,   3,  -113.700,    76.700,     0.000,     0.000,     0.000,     0.000,   1
 1190,'1 ',1,   1,   1,   100.310,    29.170,     0.000,     0.000,     0.000,     0.000,   1
 1200,'1 ',1,   1,   1,  -100.000,    34.170,     0.000,     0.000,     0.000,     0.000,   1
 9003,'1 ',1,   1,   9,     2.710,     0.940,     0.000,     0.000,     0.000,     0.000,   1
 9004,'1 ',1,   1,   9,     0.860,     0.280,     0.000,     0.000,     0.000,     0.000,   1
 9021,'1 ',1,   1,   9,     4.750,     1.560,     0.000,     0.000,     0.000,     0.000,   1
 9022,'1 ',1,   1,   9,     1.530,     0.530,     0.000,     0.000,     0.000,     0.000,   1
 9024,'1 ',1,   1,   9,     1.350,     0.470,     0.000,     0.000,     0.000,     0.000,   1
 9025,'1 ',1,   1,   9,     0.450,     0.160,     0.000,     0.000,     0.000,     0.000,   1
 9026,'1 ',1,   1,   9,     0.450,     0.160,     0.000,     0.000,     0.000,     0.000,   1
 9031,'1 ',1,   1,   9,     1.840,     0.640,     0.000,     0.000,     0.000,     0.000,   1
 9032,'1 ',1,   1,   9,     1.390,     0.480,     0.000,     0.000,     0.000,     0.000,   1
 9033,'1 ',1,   1,   9,     1.890,     0.650,     0.000,     0.000,     0.000,     0.000,   1
 9034,'1 ',1,   1,   9,     1.550,     0.540,     0.000,     0.000,     0.000,     0.000,   1
 9035,'1 ',1,   1,   9,     1.660,     0.580,     0.000,     0.000,     0.000,     0.000,   1
 9036,'1 ',1,   1,   9,     3.030,     1.000,     0.000,     0.000,     0.000,     0.000,   1
 9037,'1 ',1,   1,   9,     1.860,     0.640,     0.000,     0.000,     0.000,     0.000,   1
 9038,'1 ',1,   1,   9,     2.580,     0.890,     0.000,     0.000,     0.000,     0.000,   1
 9041,'1 ',1,   1,   9,     1.010,     0.350,     0.000,     0.000,     0.000,     0.000,   1
 9042,'1 ',1,   1,   9,     0.810,     0.280,     0.000,     0.000,     0.000,     0.000,   1
 9043,'1 ',1,   1,   9,     1.600,     0.520,     0.000,     0.000,     0.000,     0.000,   1
 9052,'1 ',1,   1,   9,    30.000,    23.000,     0.000,     0.000,     0.000,     0.000,   1
 9071,'1 ',1,   1,   9,     1.020,     0.350,     0.000,     0.000,     0.000,     0.000,   1
 9072,'1 ',1,   1,   9,     1.020,     0.350,     0.000,     0.000,     0.000,     0.000,   1
 9121,'1 ',1,   1,   9,     3.800,     1.250,     0.000,     0.000,     0.000,     0.000,   1
 9533,'1 ',1,   1,   9,     1.190,     0.410,     0.000,     0.000,     0.000,     0.000,   1
0 / END OF LOAD DATA, BEGIN GENERATOR DATA
10000,'1 ',    -5.000,    10.000,    10.000,   -10.000,1.01530,    0,    25.000,   0.00140,   0.12000,   0.00000,   0.00000,1.00000,1,  100.0,  9999.000, -9999.000,   1,1.0000,   0,1.0000,   0,1.0000,   0,1.0000
10001,'1 ',    -5.000,    20.000,    20.000,   -20.000,1.02050,    0,    25.000,   0.00140,   0.12000,   0.00000,   0.00000,1.00000,1,  100.0,  9999.000, -9999.000,   1,1.0000,   0,1.0000,   0,1.0000,   0,1.0000
10002,'1 ',   -10.000,    20.000,    20.000,   -20.000,1.00100,    0,    27.000,   0.00140,   0.12000,   0.00000,   0.00000,1.00000,1,  100.0,  9999.000, -9999.000,   1,1.0000,   0,1.0000,   0,1.0000,   0,1.0000
10003,'1 ',     0.000,    23.906,    25.000,   -25.000,0.95830,    0,    30.000,   0.00140,   0.12000,   0.00000,   0.00000,1.00000,1,  100.0,  9999.000, -9999.000,   1,1.0000,   0,1.0000,   0,1.0000,   0,1.0000
10004,'1 ',     0.000,    12.000,    35.000,    12.000,0.96320,    0,    42.000,   0.00140,   0.12000,   0.00000,   0.00000,1.00000,1,  100.0,  9999.000, -9999.000,   1,1.0000,   0,1.0000,   0,1.0000,   0,1.0000
10005,'1 ',   375.000,    98.109,   240.000,  -240.000,1.02500,    0,   835.000,   0.00190,   0.33900,   0.00000,   0.00000,1.00000,1,  100.0,  9999.000, -9999.000,   1,1.0000,   0,1.0000,   0,1.0000,   0,1.0000
10006,'1 ',   155.000,    44.155,    96.000,   -11.000,1.05200,    0,   270.000,   0.00160,   0.18500,   0.00000,   0.00000,1.00000,1,  100.0,  9999.000, -9999.000,   1,1.0000,   0,1.0000,   0,1.0000,   0,1.0000
10007,'1 ',   290.000,    30.232,   153.000,  -153.000,1.05200,    0,   410.000,   0.00190,   0.22840,   0.00000,   0.00000,1.00000,1,  100.0,  9999.000, -9999.000,   1,1.0000,   0,1.0000,   0,1.0000,   0,1.0000
10008,'1 ',    68.000,   -10.626,    56.000,   -30.000,1.00000,    0,   125.000,   0.00400,   0.13400,   0.00000,   0.00000,1.00000,1,  100.0,  9999.000, -9999.000,   1,1.0000,   0,1.0000,   0,1.0000,   0,1.0000
10009,'1 ',   117.000,    17.172,    77.000,   -24.000,0.99000,    0,   270.000,   0.00160,   0.18500,   0.00000,   0.00000,1.00000,1,  100.0,  9999.000, -9999.000,   1,1.0000,   0,1.0000,   0,1.0000,   0,1.0000
10010,'1 ',  1930.000,   794.662,  1500.000,  -500.000,1.04350,    0,  2845.000,   0.00100,   0.19300,   0.00000,   0.00000,1.00000,1,  100.0,  9999.000, -9999.000,   1,1.0000,   0,1.0000,   0,1.0000,   0,1.0000
10011,'1 ',   240.000,   120.000,   120.000,   -60.000,1.02330,    0,   410.000,   0.00190,   0.22840,   0.00000,   0.00000,1.00000,1,  100.0,  9999.000, -9999.000,   1,1.0000,   0,1.0000,   0,1.0000,   0,1.0000
10012,'1 ',     0.000,   200.000,   200.000,   -25.000,1.01030,    0,   240.000,   0.00140,   0.12000,   0.00000,   0.00000,1.00000,1,  100.0,  9999.000, -9999.000,   1,1.0000,   0,1.0000,   0,1.0000,   0,1.0000
10013,'1 ',  -925.030,   350.000,   350.000,  -125.000,1.05500,    0,  1187.000,   0.00100,   0.19300,   0.00000,   0.00000,1.00000,1,  100.0,  9999.000, -9999.000,   1,1.0000,   0,1.0000,   0,1.0000,   0,1.0000
10014,'1 ',   281.000,    66.634,    75.000,   -50.000,1.05100,    0,   410.000,   0.00190,   0.22840,   0.00000,   0.00000,1.00000,1,  100.0,  9999.000, -9999.000,   1,1.0000,   0,1.0000,   0,1.0000,   0,1.0000
10015,'1 ',   696.000,    -3.170,   300.000,  -100.000,1.04350,    0,   911.000,   0.00100,   0.19300,   0.00000,   0.00000,1.00000,1,  100.0,  9999.000, -9999.000,   1,1.0000,   0,1.0000,   0,1.0000,   0,1.0000
10016,'1 ',    84.000,    28.506,    35.000,   -15.000,1.05280,    0,   125.000,   0.00400,   0.13400,   0.00000,   0.00000,1.00000,1,  100.0,  9999.000, -9999.000,   1,1.0000,   0,1.0000,   0,1.0000,   0,1.0000
10017,'1 ',   217.000,   -48.909,   100.000,   -50.000,1.05280,    0,   410.000,   0.00190,   0.22840,   0.00000,   0.00000,1.00000,1,  100.0,  9999.000, -9999.000,   1,1.0000,   0,1.0000,   0,1.0000,   0,1.0000
10018,'1 ',   103.000,    47.419,    50.000,   -25.000,1.07350,    0,   270.000,   0.00160,   0.18500,   0.00000,   0.00000,1.00000,1,  100.0,  9999.000, -9999.000,   1,1.0000,   0,1.0000,   0,1.0000,   0,1.0000
10019,'1 ',   372.000,   -50.000,   175.000,   -50.000,1.05350,    0,   835.000,   0.00190,   0.33900,   0.00000,   0.00000,1.00000,1,  100.0,  9999.000, -9999.000,   1,1.0000,   0,1.0000,   0,1.0000,   0,1.0000
10020,'1 ',   216.000,   -50.000,    90.000,   -50.000,1.04350,    0,   410.000,   0.00190,   0.22840,   0.00000,   0.00000,1.00000,1,  100.0,  9999.000, -9999.000,   1,1.0000,   0,1.0000,   0,1.0000,   0,1.0000
10021,'1 ',     0.000,   -10.000,    15.000,   -10.000,0.96300,    0,    25.000,   0.00140,   0.12000,   0.00000,   0.00000,1.00000,1,  100.0,  9999.000, -9999.000,   1,1.0000,   0,1.0000,   0,1.0000,   0,1.0000
10022,'1 ',   205.000,   -40.000,    90.000,   -40.000,1.00000,    0,   410.000,   0.00190,   0.22840,   0.00000,   0.00000,1.00000,1,  100.0,  9999.000, -9999.000,   1,1.0000,   0,1.0000,   0,1.0000,   0,1.0000
10023,'1 ',     0.000,   135.824,   150.000,   -50.000,0.98290,    0,   180.000,   0.00140,   0.12000,   0.00000,   0.00000,1.00000,1,  100.0,  9999.000, -9999.000,   1,1.0000,   0,1.0000,   0,1.0000,   0,1.0000
10024,'1 ',   228.000,    39.105,    90.000,   -45.000,1.05220,    0,   410.000,   0.00190,   0.22840,   0.00000,   0.00000,1.00000,1,  100.0,  9999.000, -9999.000,   1,1.0000,   0,1.0000,   0,1.0000,   0,1.0000
10025,'1 ',    84.000,    22.556,    35.000,   -15.000,1.00770,    0,   270.000,   0.00160,   0.18500,   0.00000,   0.00000,1.00000,1,  100.0,  9999.000, -9999.000,   1,1.0000,   0,1.0000,   0,1.0000,   0,1.0000
10026,'1 ',   200.000,    22.376,    80.000,   -50.000,1.05220,    0,   410.000,   0.00190,   0.22840,   0.00000,   0.00000,1.00000,1,  100.0,  9999.000, -9999.000,   1,1.0000,   0,1.0000,   0,1.0000,   0,1.0000
10027,'1 ',  1200.000,   278.794,   400.000,  -100.000,1.06500,    0,  1491.000,   0.00100,   0.19300,   0.00000,   0.00000,1.00000,1,  100.0,  9999.000, -9999.000,   1,1.0000,   0,1.0000,   0,1.0000,   0,1.0000
10028,'1 ',  1200.000,   348.913,   400.000,  -100.000,1.06500,    0,  1517.000,   0.00100,   0.19300,   0.00000,   0.00000,1.00000,1,  100.0,  9999.000, -9999.000,   1,1.0000,   0,1.0000,   0,1.0000,   0,1.0000
10029,'1 ',   475.000,   -76.180,   300.000,  -300.000,1.05510,    0,   835.000,   0.00190,   0.33900,   0.00000,   0.00000,1.00000,1,  100.0,  9999.000, -9999.000,   1,1.0000,   0,1.0000,   0,1.0000,   0,1.0000
10030,'1 ',  1973.000,   685.922,  1000.000, -1000.000,1.04350,    0,  2510.000,   0.00100,   0.19300,   0.00000,   0.00000,1.00000,1,  100.0,  9999.000, -9999.000,   1,1.0000,   0,1.0000,   0,1.0000,   0,1.0000
10031,'1 ',   424.000,    64.792,   260.000,  -260.000,1.01500,    0,   835.000,   0.00190,   0.33900,   0.00000,   0.00000,1.00000,1,  100.0,  9999.000, -9999.000,   1,1.0000,   0,1.0000,   0,1.0000,   0,1.0000
10032,'1 ',   272.000,    43.202,   150.000,  -150.000,1.01000,    0,   512.000,   0.00400,   0.20000,   0.00000,   0.00000,1.00000,1,  100.0,  9999.000, -9999.000,   1,1.0000,   0,1.0000,   0,1.0000,   0,1.0000
10033,'1 ',   100.000,    37.079,    60.000,   -60.000,1.00800,    0,   270.000,   0.00160,   0.18500,   0.00000,   0.00000,1.00000,1,  100.0,  9999.000, -9999.000,   1,1.0000,   0,1.0000,   0,1.0000,   0,1.0000
10034,'1 ',   450.000,   140.615,   320.000,  -320.000,1.00000,    0,   835.000,   0.00190,   0.33900,   0.00000,   0.00000,1.00000,1,  100.0,  9999.000, -9999.000,   1,1.0000,   0,1.0000,   0,1.0000,   0,1.0000
10035,'1 ',   250.000,   142.452,   300.000,  -300.000,1.05000,    0,   410.000,   0.00190,   0.22840,   0.00000,   0.00000,1.00000,1,  100.0,  9999.000, -9999.000,   1,1.0000,   0,1.0000,   0,1.0000,   0,1.0000
10036,'1 ',   303.000,   252.685,   300.000,  -300.000,1.00000,    0,   512.000,   0.00400,   0.20000,   0.00000,   0.00000,1.00000,1,  100.0,  9999.000, -9999.000,   1,1.0000,   0,1.0000,   0,1.0000,   0,1.0000
10037,'1 ',   345.000,    42.530,   250.000,  -250.000,1.04000,    0,   835.000,   0.00190,   0.33900,   0.00000,   0.00000,1.00000,1,  100.0,  9999.000, -9999.000,   1,1.0000,   0,1.0000,   0,1.0000,   0,1.0000
10038,'1 ',   300.000,   131.887,   500.000,  -500.000,1.00000,    0,   512.000,   0.00400,   0.20000,   0.00000,   0.00000,1.00000,1,  100.0,  9999.000, -9999.000,   1,1.0000,   0,1.0000,   0,1.0000,   0,1.0000
10039,'1 ',   600.000,   299.182,   300.000,  -300.000,1.01650,    0,   911.000,   0.00100,   0.19300,   0.00000,   0.00000,1.00000,1,  100.0,  9999.000, -9999.000,   1,1.0000,   0,1.0000,   0,1.0000,   0,1.0000
10040,'1 ',   250.000,   160.386,   200.000,  -200.000,1.01000,    0,   410.000,   0.00190,   0.22840,   0.00000,   0.00000,1.00000,1,  100.0,  9999.000, -9999.000,   1,1.0000,   0,1.0000,   0,1.0000,   0,1.0000
10041,'1 ',   550.000,    69.315,   400.000,  -400.000,1.00000,    0,   911.000,   0.00100,   0.19300,   0.00000,   0.00000,1.00000,1,  100.0,  9999.000, -9999.000,   1,1.0000,   0,1.0000,   0,1.0000,   0,1.0000
10042,'1 ',   574.780,   -36.660,   600.000,  -600.000,1.05000,    0,   911.000,   0.00100,   0.19300,   0.00000,   0.00000,1.00000,1,  100.0,  9999.000, -9999.000,   1,1.0000,   0,1.0000,   0,1.0000,   0,1.0000
10043,'1 ',   170.000,    48.017,   100.000,    40.000,0.99300,    0,   410.000,   0.00190,   0.22840,   0.00000,   0.00000,1.00000,1,  100.0,  9999.000, -9999.000,   1,1.0000,   0,1.0000,   0,1.0000,   0,1.0000
10044,'1 ',    84.000,    52.042,    80.000,    40.000,1.01000,    0,   270.000,   0.00160,   0.18500,   0.00000,   0.00000,1.00000,1,  100.0,  9999.000, -9999.000,   1,1.0000,   0,1.0000,   0,1.0000,   0,1.0000
10045,'1 ',   467.000,   140.784,   210.000,  -210.000,1.05070,    0,   835.000,   0.00190,   0.33900,   0.00000,   0.00000,1.00000,1,  100.0,  9999.000, -9999.000,   1,1.0000,   0,1.0000,   0,1.0000,   0,1.0000
10046,'1 ',   623.000,    95.239,   280.000,  -280.000,1.05070,    0,   911.000,   0.00100,   0.19300,   0.00000,   0.00000,1.00000,1,  100.0,  9999.000, -9999.000,   1,1.0000,   0,1.0000,   0,1.0000,   0,1.0000
10047,'1 ',  1210.000,   420.000,   420.000,  -420.000,1.03230,    0,  1537.000,   0.00100,   0.19300,   0.00000,   0.00000,1.00000,1,  100.0,  9999.000, -9999.000,   1,1.0000,   0,1.0000,   0,1.0000,   0,1.0000
10048,'1 ',   234.000,    52.863,   100.000,  -100.000,1.01450,    0,   410.000,   0.00190,   0.22840,   0.00000,   0.00000,1.00000,1,  100.0,  9999.000, -9999.000,   1,1.0000,   0,1.0000,   0,1.0000,   0,1.0000
10049,'1 ',   372.000,   201.264,   224.000,  -224.000,1.05070,    0,   835.000,   0.00190,   0.33900,   0.00000,   0.00000,1.00000,1,  100.0,  9999.000, -9999.000,   1,1.0000,   0,1.0000,   0,1.0000,   0,1.0000
10050,'1 ',   330.000,   348.875,   350.000,     0.000,1.05070,    0,   835.000,   0.00190,   0.33900,   0.00000,   0.00000,1.00000,1,  100.0,  9999.000, -9999.000,   1,1.0000,   0,1.0000,   0,1.0000,   0,1.0000
10051,'1 ',   185.000,     6.885,   120.000,     0.000,1.05070,    0,   410.000,   0.00190,   0.22840,   0.00000,   0.00000,1.00000,1,  100.0,  9999.000, -9999.000,   1,1.0000,   0,1.0000,   0,1.0000,   0,1.0000
10052,'1 ',   410.000,   107.319,   224.000,  -224.000,1.02900,    0,   835.000,   0.00190,   0.33900,   0.00000,   0.00000,1.00000,1,  100.0,  9999.000, -9999.000,   1,1.0000,   0,1.0000,   0,1.0000,   0,1.0000
10053,'1 ',   500.000,   150.061,   200.000,  -200.000,1.05000,    0,   835.000,   0.00190,   0.33900,   0.00000,   0.00000,1.00000,1,  100.0,  9999.000, -9999.000,   1,1.0000,   0,1.0000,   0,1.0000,   0,1.0000
10054,'1 ',    37.000,    38.255,    42.000,     0.000,1.01450,    0,   125.000,   0.00400,   0.13400,   0.00000,   0.00000,1.00000,1,  100.0,  9999.000, -9999.000,   1,1.0000,   0,1.0000,   0,1.0000,   0,1.0000
10055,'1 ',   458.478,    37.433,     0.000,     0.000,1.05070,    0,   835.000,   0.00190,   0.33900,   0.00000,   0.00000,1.00000,1,  100.0,  9999.000, -9999.000,   1,1.0000,   0,1.0000,   0,1.0000,   0,1.0000
10056,'1 ',    45.000,    23.874,    25.000,     0.000,0.99670,    0,   125.000,   0.00400,   0.13400,   0.00000,   0.00000,1.00000,1,  100.0,  9999.000, -9999.000,   1,1.0000,   0,1.0000,   0,1.0000,   0,1.0000
10057,'1 ',   165.000,    88.520,    90.000,   -90.000,1.02120,    0,   410.000,   0.00190,   0.22840,   0.00000,   0.00000,1.00000,1,  100.0,  9999.000, -9999.000,   1,1.0000,   0,1.0000,   0,1.0000,   0,1.0000
10058,'1 ',   400.000,   120.005,   150.000,  -150.000,1.01450,    0,   835.000,   0.00190,   0.33900,   0.00000,   0.00000,1.00000,1,  100.0,  9999.000, -9999.000,   1,1.0000,   0,1.0000,   0,1.0000,   0,1.0000
10059,'1 ',   400.000,   144.770,   150.000,     0.000,1.00170,    0,   835.000,   0.00190,   0.33900,   0.00000,   0.00000,1.00000,1,  100.0,  9999.000, -9999.000,   1,1.0000,   0,1.0000,   0,1.0000,   0,1.0000
10060,'1 ',   116.000,     0.000,    87.000,     0.000,0.98930,    0,   270.000,   0.00160,   0.18500,   0.00000,   0.00000,1.00000,1,  100.0,  9999.000, -9999.000,   1,1.0000,   0,1.0000,   0,1.0000,   0,1.0000
10061,'1 ',  1292.000,   326.610,   600.000,  -100.000,1.05070,    0,  1611.000,   0.00100,   0.19300,   0.00000,   0.00000,1.00000,1,  100.0,  9999.000, -9999.000,   1,1.0000,   0,1.0000,   0,1.0000,   0,1.0000
10062,'1 ',   700.000,   286.934,   325.000,  -125.000,1.05070,    0,   911.000,   0.00100,   0.19300,   0.00000,   0.00000,1.00000,1,  100.0,  9999.000, -9999.000,   1,1.0000,   0,1.0000,   0,1.0000,   0,1.0000
10063,'1 ',   553.000,   137.603,   300.000,  -200.000,1.01450,    0,   911.000,   0.00100,   0.19300,   0.00000,   0.00000,1.00000,1,  100.0,  9999.000, -9999.000,   1,1.0000,   0,1.0000,   0,1.0000,   0,1.0000
10064,'1 ',    -4.200,     1.916,     2.000,    -2.000,0.99450,    0,    25.000,   0.00140,   0.12000,   0.00000,   0.00000,1.00000,1,  100.0,  9999.000, -9999.000,   1,1.0000,   0,1.0000,   0,1.0000,   0,1.0000
10065,'1 ',   -35.810,    15.052,    17.350,   -17.350,1.00000,    0,   125.000,   0.00400,   0.13400,   0.00000,   0.00000,1.00000,1,  100.0,  9999.000, -9999.000,   1,1.0000,   0,1.0000,   0,1.0000,   0,1.0000
10066,'1 ',   -26.480,    10.924,    12.830,   -12.800,1.00000,    0,   125.000,   0.00400,   0.13400,   0.00000,   0.00000,1.00000,1,  100.0,  9999.000, -9999.000,   1,1.0000,   0,1.0000,   0,1.0000,   0,1.0000
10067,'1 ',    50.000,    18.833,    38.000,   -38.000,1.00000,    0,   125.000,   0.00400,   0.13400,   0.00000,   0.00000,1.00000,1,  100.0,  9999.000, -9999.000,   1,1.0000,   0,1.0000,   0,1.0000,   0,1.0000
10068,'1 ',     8.000,     3.472,     6.000,    -6.000,1.00000,    0,    25.000,   0.00140,   0.12000,   0.00000,   0.00000,1.00000,1,  100.0,  9999.000, -9999.000,   1,1.0000,   0,1.0000,   0,1.0000,   0,1.0000
0 / END OF GENERATOR DATA, BEGIN BRANCH DATA
    1,     5,'1 ', 0.00100, 0.00600,0.00000, 756.99, 984.08,   0.00,  0.00000,  0.00000,  0.00000,  0.00000,1,   0.0,   1,1.0000,   0,1.0000,   0,1.0000,   0,1.0000
    2,     6,'1 ', 0.00100, 0.00900,0.00000, 294.90, 383.38,   0.00,  0.00000,  0.00000,  0.00000,  0.00000,1,   0.0,   1,1.0000,   0,1.0000,   0,1.0000,   0,1.0000
    2,     8,'1 ', 0.00600, 0.02700,0.05400, 672.44, 874.17,   0.00,  0.00000,  0.00000,  0.00000,  0.00000,1,   0.0,   1,1.0000,   0,1.0000,   0,1.0000,   0,1.0000
    3,     7,'1 ', 0.00000, 0.00300,0.00000, 543.03, 705.94,   0.00,  0.00000,  0.00000,  0.00000,  0.00000,1,   0.0,   1,1.0000,   0,1.0000,   0,1.0000,   0,1.0000
    3,    19,'1 ', 0.00800, 0.06900,0.13900, 400.15, 520.20,   0.00,  0.00000,  0.00000,  0.00000,  0.00000,1,   0.0,   1,1.0000,   0,1.0000,   0,1.0000,   0,1.0000
    3,   150,'1 ', 0.00100, 0.00700,0.00000, 706.70, 918.71,   0.00,  0.00000,  0.00000,  0.00000,  0.00000,1,   0.0,   1,1.0000,   0,1.0000,   0,1.0000,   0,1.0000
    4,    16,'1 ', 0.00200, 0.01900,1.12700,1200.04,1560.05,   0.00,  0.00000,  0.00000,  0.00000,  0.00000,1,   0.0,   1,1.0000,   0,1.0000,   0,1.0000,   0,1.0000
    5,     9,'1 ', 0.00600, 0.02900,0.01800, 193.71, 251.82,   0.00,  0.00000,  0.00000,  0.00000,  0.00000,1,   0.0,   1,1.0000,   0,1.0000,   0,1.0000,   0,1.0000
    7,    12,'1 ', 0.00100, 0.00900,0.07000, 362.29, 470.98,   0.00,  0.00000,  0.00000,  0.00000,  0.00000,1,   0.0,   1,1.0000,   0,1.0000,   0,1.0000,   0,1.0000
    7,   131,'1 ', 0.00100, 0.00700,0.01400, 614.65, 799.04,   0.00,  0.00000,  0.00000,  0.00000,  0.00000,1,   0.0,   1,1.0000,   0,1.0000,   0,1.0000,   0,1.0000
    8,    11,'1 ', 0.01300, 0.05950,0.03300, 262.38, 341.09,   0.00,  0.00000,  0.00000,  0.00000,  0.00000,1,   0.0,   1,1.0000,   0,1.0000,   0,1.0000,   0,1.0000
    8,    14,'1 ', 0.01300, 0.04200,0.08100, 559.22, 726.99,   0.00,  0.00000,  0.00000,  0.00000,  0.00000,1,   0.0,   1,1.0000,   0,1.0000,   0,1.0000,   0,1.0000
    9,    11,'1 ', 0.00600, 0.02700,0.01300, 162.09, 210.72,   0.00,  0.00000,  0.00000,  0.00000,  0.00000,1,   0.0,   1,1.0000,   0,1.0000,   0,1.0000,   0,1.0000
   11,    13,'1 ', 0.00800, 0.03400,0.01800, 480.36, 624.46,   0.00,  0.00000,  0.00000,  0.00000,  0.00000,1,   0.0,   1,1.0000,   0,1.0000,   0,1.0000,   0,1.0000
   12,    21,'1 ', 0.00200, 0.01500,0.11800, 794.77,1033.20,   0.00,  0.00000,  0.00000,  0.00000,  0.00000,1,   0.0,   1,1.0000,   0,1.0000,   0,1.0000,   0,1.0000
   13,    20,'1 ', 0.00600, 0.03400,0.01600, 303.42, 394.44,   0.00,  0.00000,  0.00000,  0.00000,  0.00000,1,   0.0,   1,1.0000,   0,1.0000,   0,1.0000,   0,1.0000
   14,    15,'1 ', 0.01400, 0.04200,0.09700, 696.53, 905.49,   0.00,  0.00000,  0.00000,  0.00000,  0.00000,1,   0.0,   1,1.0000,   0,1.0000,   0,1.0000,   0,1.0000
   15,    37,'1 ', 0.06500, 0.24800,0.12100, 146.69, 190.70,   0.00,  0.00000,  0.00000,  0.00000,  0.00000,1,   0.0,   1,1.0000,   0,1.0000,   0,1.0000,   0,1.0000
   15,    89,'1 ', 0.09900, 0.24800,0.03500,  85.59, 111.26,   0.00,  0.00000,  0.00000,  0.00000,  0.00000,1,   0.0,   1,1.0000,   0,1.0000,   0,1.0000,   0,1.0000
   15,    90,'1 ', 0.09600, 0.36300,0.04800,  85.35, 110.95,   0.00,  0.00000,  0.00000,  0.00000,  0.00000,1,   0.0,   1,1.0000,   0,1.0000,   0,1.0000,   0,1.0000
   16,    42,'1 ', 0.00200, 0.02200,1.28000, 808.78,1051.41,   0.00,  0.00000,  0.00000,  0.00000,  0.00000,1,   0.0,   1,1.0000,   0,1.0000,   0,1.0000,   0,1.0000
   19,    21,'1 ', 0.00200, 0.01800,0.03600, 258.39, 335.91,   0.00,  0.00000,  0.00000,  0.00000,  0.00000,1,   0.0,   1,1.0000,   0,1.0000,   0,1.0000,   0,1.0000
   19,    87,'1 ', 0.01300, 0.08000,0.15100, 376.94, 490.02,   0.00,  0.00000,  0.00000,  0.00000,  0.00000,1,   0.0,   1,1.0000,   0,1.0000,   0,1.0000,   0,1.0000
   20,    22,'1 ', 0.01600, 0.03300,0.01500, 241.98, 314.57,   0.00,  0.00000,  0.00000,  0.00000,  0.00000,1,   0.0,   1,1.0000,   0,1.0000,   0,1.0000,   0,1.0000
   20,    27,'1 ', 0.06900, 0.18600,0.09800, 323.54, 420.61,   0.00,  0.00000,  0.00000,  0.00000,  0.00000,1,   0.0,   1,1.0000,   0,1.0000,   0,1.0000,   0,1.0000
   21,    24,'1 ', 0.00400, 0.03400,0.28000, 373.69, 485.80,   0.00,  0.00000,  0.00000,  0.00000,  0.00000,1,   0.0,   1,1.0000,   0,1.0000,   0,1.0000,   0,1.0000
   22,    23,'1 ', 0.05200, 0.11100,0.05000, 388.72, 505.33,   0.00,  0.00000,  0.00000,  0.00000,  0.00000,1,   0.0,   1,1.0000,   0,1.0000,   0,1.0000,   0,1.0000
   23,    25,'1 ', 0.01900, 0.03900,0.01800, 231.91, 301.49,   0.00,  0.00000,  0.00000,  0.00000,  0.00000,1,   0.0,   1,1.0000,   0,1.0000,   0,1.0000,   0,1.0000
   24,   319,'1 ', 0.00700, 0.06800,0.13400, 208.98, 271.67,   0.00,  0.00000,  0.00000,  0.00000,  0.00000,1,   0.0,   1,1.0000,   0,1.0000,   0,1.0000,   0,1.0000
   25,    26,'1 ', 0.03600, 0.07100,0.03400, 143.60, 186.68,   0.00,  0.00000,  0.00000,  0.00000,  0.00000,1,   0.0,   1,1.0000,   0,1.0000,   0,1.0000,   0,1.0000
   26,    27,'1 ', 0.04500, 0.12000,0.06500,  82.26, 106.94,   0.00,  0.00000,  0.00000,  0.00000,  0.00000,1,   0.0,   1,1.0000,   0,1.0000,   0,1.0000,   0,1.0000
   26,   320,'1 ', 0.04300, 0.13000,0.01400,  30.00,  39.00,   0.00,  0.00000,  0.00000,  0.00000,  0.00000,1,   0.0,   1,1.0000,   0,1.0000,   0,1.0000,   0,1.0000
   33,    38,'1 ', 0.00250, 0.01200,0.01300, 164.63, 214.01,   0.00,  0.00000,  0.00000,  0.00000,  0.00000,1,   0.0,   1,1.0000,   0,1.0000,   0,1.0000,   0,1.0000
   33,    40,'1 ', 0.00600, 0.02900,0.02000,  81.79, 106.32,   0.00,  0.00000,  0.00000,  0.00000,  0.00000,1,   0.0,   1,1.0000,   0,1.0000,   0,1.0000,   0,1.0000
   33,    41,'1 ', 0.00700, 0.04300,0.02600, 134.83, 175.28,   0.00,  0.00000,  0.00000,  0.00000,  0.00000,1,   0.0,   1,1.0000,   0,1.0000,   0,1.0000,   0,1.0000
   34,    42,'1 ', 0.00100, 0.00800,0.04200, 202.68, 263.49,   0.00,  0.00000,  0.00000,  0.00000,  0.00000,1,   0.0,   1,1.0000,   0,1.0000,   0,1.0000,   0,1.0000
   35,    72,'1 ', 0.01200, 0.06000,0.00800, 133.07, 173.00,   0.00,  0.00000,  0.00000,  0.00000,  0.00000,1,   0.0,   1,1.0000,   0,1.0000,   0,1.0000,   0,1.0000
   35,    76,'1 ', 0.00600, 0.01400,0.00200, 185.71, 241.42,   0.00,  0.00000,  0.00000,  0.00000,  0.00000,1,   0.0,   1,1.0000,   0,1.0000,   0,1.0000,   0,1.0000
   35,    77,'1 ', 0.01000, 0.02900,0.00300,  77.27, 100.46,   0.00,  0.00000,  0.00000,  0.00000,  0.00000,1,   0.0,   1,1.0000,   0,1.0000,   0,1.0000,   0,1.0000
   36,    88,'1 ', 0.00400, 0.02700,0.04300, 357.03, 464.15,   0.00,  0.00000,  0.00000,  0.00000,  0.00000,1,   0.0,   1,1.0000,   0,1.0000,   0,1.0000,   0,1.0000
   37,    38,'1 ', 0.00800, 0.04700,0.00800, 145.12, 188.66,   0.00,  0.00000,  0.00000,  0.00000,  0.00000,1,   0.0,   1,1.0000,   0,1.0000,   0,1.0000,   0,1.0000
   37,    40,'1 ', 0.02200, 0.06400,0.00700,  73.35,  95.35,   0.00,  0.00000,  0.00000,  0.00000,  0.00000,1,   0.0,   1,1.0000,   0,1.0000,   0,1.0000,   0,1.0000
   37,    41,'1 ', 0.01000, 0.03600,0.02000, 200.13, 260.17,   0.00,  0.00000,  0.00000,  0.00000,  0.00000,1,   0.0,   1,1.0000,   0,1.0000,   0,1.0000,   0,1.0000
   37,    49,'1 ', 0.01700, 0.08100,0.04800, 359.55, 467.41,   0.00,  0.00000,  0.00000,  0.00000,  0.00000,1,   0.0,   1,1.0000,   0,1.0000,   0,1.0000,   0,1.0000
   37,    89,'1 ', 0.10200, 0.25400,0.03300,  57.65,  74.94,   0.00,  0.00000,  0.00000,  0.00000,  0.00000,1,   0.0,   1,1.0000,   0,1.0000,   0,1.0000,   0,1.0000
   37,    90,'1 ', 0.04700, 0.12700,0.01600,  96.75, 125.77,   0.00,  0.00000,  0.00000,  0.00000,  0.00000,1,   0.0,   1,1.0000,   0,1.0000,   0,1.0000,   0,1.0000
   38,    41,'1 ', 0.00800, 0.03700,0.02000, 209.19, 271.95,   0.00,  0.00000,  0.00000,  0.00000,  0.00000,1,   0.0,   1,1.0000,   0,1.0000,   0,1.0000,   0,1.0000
   38,    43,'1 ', 0.03200, 0.08700,0.04000, 141.56, 184.03,   0.00,  0.00000,  0.00000,  0.00000,  0.00000,1,   0.0,   1,1.0000,   0,1.0000,   0,1.0000,   0,1.0000
   39,    42,'1 ', 0.00060, 0.00640,0.40400, 809.05,1051.77,   0.00,  0.00000,  0.00000,  0.00000,  0.00000,1,   0.0,   1,1.0000,   0,1.0000,   0,1.0000,   0,1.0000
...